L24/1726538/Chaves.dss
! ==========================================================
! CHAVES — geradas de UNSEMT (Line com Switch=Y)
! ==========================================================
! 16 chave(s) omitida(s): os dois PACs fora da rede de MT deste alimentador, o que criaria ilha flutuante — ex.: 899253860, 2603735616, 2312392162
New Line.1960966967 Phases=3 Bus1=node_2278667443.1.2.3 Bus2=node_2278667444.1.2.3 Switch=Y r1=1e-4 x1=1e-4 r0=1e-4 x0=1e-4 normamps=9999
New Line.1949841009 Phases=1 Bus1=node_2266987296.1 Bus2=node_2266987297.1 Switch=Y r1=1e-4 x1=1e-4 r0=1e-4 x0=1e-4 normamps=9999
New Line.1903994017 Phases=1 Bus1=node_2223098443.1 Bus2=node_2223098444.1 Switch=Y r1=1e-4 x1=1e-4 r0=1e-4 x0=1e-4 normamps=9999
New Line.343219053 Phases=3 Bus1=node_2278668547.1.2.3 Bus2=node_2278668548.1.2.3 Switch=Y r1=1e-4 x1=1e-4 r0=1e-4 x0=1e-4 normamps=9999
New Line.1903993995 Phases=1 Bus1=node_2223098387.1 Bus2=node_2223098388.1 Switch=Y r1=1e-4 x1=1e-4 r0=1e-4 x0=1e-4 normamps=9999
New Line.1900099339 Phases=1 Bus1=node_2219349761.1 Bus2=node_2219349762.1 Switch=Y r1=1e-4 x1=1e-4 r0=1e-4 x0=1e-4 normamps=9999
New Line.1943966847 Phases=1 Bus1=node_2261053075.2 Bus2=node_2261053076.2 Switch=Y r1=1e-4 x1=1e-4 r0=1e-4 x0=1e-4 normamps=9999
New Line.1936533937 Phases=1 Bus1=node_2253564444.3 Bus2=node_2253564445.3 Switch=Y r1=1e-4 x1=1e-4 r0=1e-4 x0=1e-4 normamps=9999
New Line.1821562224 Phases=1 Bus1=node_2144686100.2 Bus2=node_2144686101.2 Switch=Y r1=1e-4 x1=1e-4 r0=1e-4 x0=1e-4 normamps=9999
New Line.2190308091 Phases=1 Bus1=node_2496070018.3 Bus2=node_2496070017.3 Switch=Y r1=1e-4 x1=1e-4 r0=1e-4 x0=1e-4 normamps=9999
New Line.2366556519 Phases=3 Bus1=node_2579359001.1.2.3 Bus2=node_435270548.1.2.3 Switch=Y r1=1e-4 x1=1e-4 r0=1e-4 x0=1e-4 normamps=9999
New Line.867856135 Phases=1 Bus1=100_867856154.1 Bus2=100_867856153.1 Switch=Y r1=1e-4 x1=1e-4 r0=1e-4 x0=1e-4 normamps=9999
New Line.368021409 Phases=1 Bus1=100_368021422.2 Bus2=100_368021423.2 Switch=Y r1=1e-4 x1=1e-4 r0=1e-4 x0=1e-4 normamps=9999
New Line.1362091270 Phases=1 Bus1=100_1362091301.1 Bus2=100_1362091300.1 Switch=Y r1=1e-4 x1=1e-4 r0=1e-4 x0=1e-4 normamps=9999
New Line.1378451729 Phases=1 Bus1=100_1378451755.1 Bus2=100_1378451756.1 Switch=Y r1=1e-4 x1=1e-4 r0=1e-4 x0=1e-4 normamps=9999
New Line.1364388740 Phases=1 Bus1=100_1364388766.3 Bus2=100_1364388770.3 Switch=Y r1=1e-4 x1=1e-4 r0=1e-4 x0=1e-4 normamps=9999
New Line.368020757 Phases=1 Bus1=100_368020770.2 Bus2=100_368020771.2 Switch=Y r1=1e-4 x1=1e-4 r0=1e-4 x0=1e-4 normamps=9999
New Line.1387511811 Phases=1 Bus1=100_1387511830.2 Bus2=100_1387511829.2 Switch=Y r1=1e-4 x1=1e-4 r0=1e-4 x0=1e-4 normamps=9999
New Line.1475345465 Phases=1 Bus1=100_1475345496.3 Bus2=100_1475345495.3 Switch=Y r1=1e-4 x1=1e-4 r0=1e-4 x0=1e-4 normamps=9999
New Line.1348067161 Phases=1 Bus1=100_1348067252.1 Bus2=100_1348067251.1 Switch=Y r1=1e-4 x1=1e-4 r0=1e-4 x0=1e-4 normamps=9999
New Line.1408350426 Phases=1 Bus1=100_1408350453.3 Bus2=100_1408350452.3 Switch=Y r1=1e-4 x1=1e-4 r0=1e-4 x0=1e-4 normamps=9999
New Line.1376725124 Phases=1 Bus1=100_1376725154.1 Bus2=100_1376725155.1 Switch=Y r1=1e-4 x1=1e-4 r0=1e-4 x0=1e-4 normamps=9999
New Line.347293841 Phases=1 Bus1=100_347293854.3 Bus2=100_347293855.3 Switch=Y r1=1e-4 x1=1e-4 r0=1e-4 x0=1e-4 normamps=9999
New Line.1444453388 Phases=1 Bus1=100_1444453415.3 Bus2=100_1444453414.3 Switch=Y r1=1e-4 x1=1e-4 r0=1e-4 x0=1e-4 normamps=9999
New Line.1377133332 Phases=1 Bus1=100_1377133339.3 Bus2=100_1377133340.3 Switch=Y r1=1e-4 x1=1e-4 r0=1e-4 x0=1e-4 normamps=9999
New Line.1403562704 Phases=1 Bus1=100_1403562709.1 Bus2=100_1403562710.1 Switch=Y r1=1e-4 x1=1e-4 r0=1e-4 x0=1e-4 normamps=9999
New Line.1429197798 Phases=1 Bus1=100_1429197829.3 Bus2=100_1429197828.3 Switch=Y r1=1e-4 x1=1e-4 r0=1e-4 x0=1e-4 normamps=9999
New Line.1377133313 Phases=1 Bus1=100_1377133339.3 Bus2=100_1377133340.3 Switch=Y r1=1e-4 x1=1e-4 r0=1e-4 x0=1e-4 normamps=9999
New Line.1426668640 Phases=1 Bus1=100_1426668658.2 Bus2=100_1426668659.2 Switch=Y r1=1e-4 x1=1e-4 r0=1e-4 x0=1e-4 normamps=9999
New Line.1027455900 Phases=1 Bus1=100_1027455919.1 Bus2=100_1027455918.1 Switch=Y r1=1e-4 x1=1e-4 r0=1e-4 x0=1e-4 normamps=9999
New Line.1362937293 Phases=1 Bus1=100_1362937324.1 Bus2=100_1362937323.1 Switch=Y r1=1e-4 x1=1e-4 r0=1e-4 x0=1e-4 normamps=9999
New Line.347490904 Phases=1 Bus1=100_347490928.1 Bus2=100_347490903.1 Switch=Y r1=1e-4 x1=1e-4 r0=1e-4 x0=1e-4 normamps=9999
New Line.1322822567 Phases=1 Bus1=node_1693077076.1 Bus2=node_1693077077.1 Switch=Y r1=1e-4 x1=1e-4 r0=1e-4 x0=1e-4 normamps=9999
New Line.1393969887 Phases=1 Bus1=100_1393969917.1 Bus2=100_1393969918.1 Switch=Y r1=1e-4 x1=1e-4 r0=1e-4 x0=1e-4 normamps=9999
New Line.342635325 Phases=3 Bus1=node_536636825.1.2.3 Bus2=node_536636826.1.2.3 Switch=Y r1=1e-4 x1=1e-4 r0=1e-4 x0=1e-4 normamps=9999
New Line.1062370174 Phases=3 Bus1=node_431225853.1.2.3 Bus2=node_1329195270.1.2.3 Switch=Y r1=1e-4 x1=1e-4 r0=1e-4 x0=1e-4 normamps=9999
New Line.2647546368 Phases=3 Bus1=node_2900289747.1.2.3 Bus2=node_2900289789.1.2.3 Switch=Y r1=1e-4 x1=1e-4 r0=1e-4 x0=1e-4 normamps=9999
New Line.2647545648 Phases=3 Bus1=node_431063246.1.2.3 Bus2=node_2900288345.1.2.3 Switch=Y r1=1e-4 x1=1e-4 r0=1e-4 x0=1e-4 normamps=9999
New Line.2647546487 Phases=3 Bus1=100_2647546525.1.2.3 Bus2=100_2647546524.1.2.3 Switch=Y r1=1e-4 x1=1e-4 r0=1e-4 x0=1e-4 normamps=9999
New Line.2647546494 Phases=3 Bus1=100_2647546525.1.2.3 Bus2=100_2647546524.1.2.3 Switch=Y r1=1e-4 x1=1e-4 r0=1e-4 x0=1e-4 normamps=9999
New Line.2647543472 Phases=3 Bus1=node_2810376538.1.2.3 Bus2=node_2810376628.1.2.3 Switch=Y r1=1e-4 x1=1e-4 r0=1e-4 x0=1e-4 normamps=9999
New Line.367100203 Phases=3 Bus1=node_564979437.1.2.3 Bus2=node_564979438.1.2.3 Switch=Y r1=1e-4 x1=1e-4 r0=1e-4 x0=1e-4 normamps=9999
New Line.343219013 Phases=3 Bus1=node_2042016014.1.2.3 Bus2=node_2042016015.1.2.3 Switch=Y r1=1e-4 x1=1e-4 r0=1e-4 x0=1e-4 normamps=9999
New Line.341918633 Phases=3 Bus1=node_535313178.1.2.3 Bus2=node_535313179.1.2.3 Switch=Y r1=1e-4 x1=1e-4 r0=1e-4 x0=1e-4 normamps=9999
New Line.2401707267 Phases=1 Bus1=node_2782503547.2 Bus2=node_2782503548.2 Switch=Y r1=1e-4 x1=1e-4 r0=1e-4 x0=1e-4 normamps=9999
New Line.343036092 Phases=1 Bus1=node_536919547.2 Bus2=node_536919548.2 Switch=Y r1=1e-4 x1=1e-4 r0=1e-4 x0=1e-4 normamps=9999
New Line.340749525 Phases=3 Bus1=node_534491168.1.2.3 Bus2=node_534491169.1.2.3 Switch=Y r1=1e-4 x1=1e-4 r0=1e-4 x0=1e-4 normamps=9999
New Line.342383532 Phases=3 Bus1=node_536216989.1.2.3 Bus2=node_536216990.1.2.3 Switch=Y r1=1e-4 x1=1e-4 r0=1e-4 x0=1e-4 normamps=9999
New Line.366827101 Phases=3 Bus1=node_564165193.1.2.3 Bus2=node_564165194.1.2.3 Switch=Y r1=1e-4 x1=1e-4 r0=1e-4 x0=1e-4 normamps=9999
New Line.367287222 Phases=3 Bus1=node_565205610.1.2.3 Bus2=node_565205611.1.2.3 Switch=Y r1=1e-4 x1=1e-4 r0=1e-4 x0=1e-4 normamps=9999
New Line.341698198 Phases=1 Bus1=node_431065771.2 Bus2=node_2565321580.2 Switch=Y r1=1e-4 x1=1e-4 r0=1e-4 x0=1e-4 normamps=9999
New Line.342066043 Phases=1 Bus1=node_535703927.3 Bus2=node_535703928.3 Switch=Y r1=1e-4 x1=1e-4 r0=1e-4 x0=1e-4 normamps=9999
New Line.343036147 Phases=1 Bus1=node_536919700.1 Bus2=node_536919701.1 Switch=Y r1=1e-4 x1=1e-4 r0=1e-4 x0=1e-4 normamps=9999
New Line.342066036 Phases=1 Bus1=node_535703906.2 Bus2=node_535703907.2 Switch=Y r1=1e-4 x1=1e-4 r0=1e-4 x0=1e-4 normamps=9999
New Line.366921117 Phases=3 Bus1=node_564566906.1.2.3 Bus2=node_564566907.1.2.3 Switch=Y r1=1e-4 x1=1e-4 r0=1e-4 x0=1e-4 normamps=9999
New Line.342634010 Phases=1 Bus1=node_536543350.1 Bus2=node_536543351.1 Switch=Y r1=1e-4 x1=1e-4 r0=1e-4 x0=1e-4 normamps=9999
New Line.343036141 Phases=1 Bus1=node_536919682.1 Bus2=node_536919683.1 Switch=Y r1=1e-4 x1=1e-4 r0=1e-4 x0=1e-4 normamps=9999
New Line.341698110 Phases=1 Bus1=node_535189232.3 Bus2=node_535189233.3 Switch=Y r1=1e-4 x1=1e-4 r0=1e-4 x0=1e-4 normamps=9999
New Line.340748194 Phases=1 Bus1=node_534487914.1 Bus2=node_534487915.1 Switch=Y r1=1e-4 x1=1e-4 r0=1e-4 x0=1e-4 normamps=9999
New Line.340360516 Phases=3 Bus1=node_534217909.1.2.3 Bus2=node_534217910.1.2.3 Switch=Y r1=1e-4 x1=1e-4 r0=1e-4 x0=1e-4 normamps=9999
New Line.342635156 Phases=3 Bus1=node_536636506.1.2.3 Bus2=node_536636507.1.2.3 Switch=Y r1=1e-4 x1=1e-4 r0=1e-4 x0=1e-4 normamps=9999
New Line.342633968 Phases=1 Bus1=node_536543252.2 Bus2=node_536543253.2 Switch=Y r1=1e-4 x1=1e-4 r0=1e-4 x0=1e-4 normamps=9999
New Line.341698117 Phases=1 Bus1=node_535189253.2 Bus2=node_535189254.2 Switch=Y r1=1e-4 x1=1e-4 r0=1e-4 x0=1e-4 normamps=9999
New Line.342382294 Phases=3 Bus1=node_536213969.1.2.3 Bus2=node_536213970.1.2.3 Switch=Y r1=1e-4 x1=1e-4 r0=1e-4 x0=1e-4 normamps=9999
New Line.343219000 Phases=1 Bus1=node_1434368451.3 Bus2=node_1434368450.3 Switch=Y r1=1e-4 x1=1e-4 r0=1e-4 x0=1e-4 normamps=9999
New Line.341698266 Phases=1 Bus1=node_535189654.1 Bus2=node_535189655.1 Switch=Y r1=1e-4 x1=1e-4 r0=1e-4 x0=1e-4 normamps=9999
New Line.343037483 Phases=3 Bus1=node_537004599.1.2.3 Bus2=node_537004598.1.2.3 Switch=Y r1=1e-4 x1=1e-4 r0=1e-4 x0=1e-4 normamps=9999
New Line.340749484 Phases=3 Bus1=node_534491093.1.2.3 Bus2=node_534491094.1.2.3 Switch=Y r1=1e-4 x1=1e-4 r0=1e-4 x0=1e-4 normamps=9999
New Line.341699246 Phases=1 Bus1=node_535312347.1 Bus2=node_535312348.1 Switch=Y r1=1e-4 x1=1e-4 r0=1e-4 x0=1e-4 normamps=9999
New Line.341340267 Phases=3 Bus1=node_534888683.1.2.3 Bus2=node_534888684.1.2.3 Switch=Y r1=1e-4 x1=1e-4 r0=1e-4 x0=1e-4 normamps=9999
New Line.341340162 Phases=3 Bus1=node_534888469.1.2.3 Bus2=node_534888468.1.2.3 Switch=Y r1=1e-4 x1=1e-4 r0=1e-4 x0=1e-4 normamps=9999
New Line.342065970 Phases=1 Bus1=node_535703732.2 Bus2=node_535703733.2 Switch=Y r1=1e-4 x1=1e-4 r0=1e-4 x0=1e-4 normamps=9999
New Line.340748067 Phases=3 Bus1=node_534487593.1.2.3 Bus2=node_534487594.1.2.3 Switch=Y r1=1e-4 x1=1e-4 r0=1e-4 x0=1e-4 normamps=9999
New Line.342065549 Phases=1 Bus1=node_535702553.2 Bus2=node_535702554.2 Switch=Y r1=1e-4 x1=1e-4 r0=1e-4 x0=1e-4 normamps=9999
New Line.341340297 Phases=3 Bus1=node_534888755.1.2.3 Bus2=node_534888756.1.2.3 Switch=Y r1=1e-4 x1=1e-4 r0=1e-4 x0=1e-4 normamps=9999
New Line.341338875 Phases=1 Bus1=node_534777835.3 Bus2=node_534777836.3 Switch=Y r1=1e-4 x1=1e-4 r0=1e-4 x0=1e-4 normamps=9999
New Line.342066076 Phases=1 Bus1=node_535704028.2 Bus2=node_535704029.2 Switch=Y r1=1e-4 x1=1e-4 r0=1e-4 x0=1e-4 normamps=9999
New Line.342067245 Phases=3 Bus1=node_535844415.1.2.3 Bus2=node_535844416.1.2.3 Switch=Y r1=1e-4 x1=1e-4 r0=1e-4 x0=1e-4 normamps=9999
New Line.342634023 Phases=1 Bus1=node_536543389.3 Bus2=node_536543390.3 Switch=Y r1=1e-4 x1=1e-4 r0=1e-4 x0=1e-4 normamps=9999
New Line.340748106 Phases=1 Bus1=node_534487686.3 Bus2=node_534487687.3 Switch=Y r1=1e-4 x1=1e-4 r0=1e-4 x0=1e-4 normamps=9999
New Line.340360361 Phases=3 Bus1=node_534217576.1.2.3 Bus2=node_534217577.1.2.3 Switch=Y r1=1e-4 x1=1e-4 r0=1e-4 x0=1e-4 normamps=9999
New Line.341339300 Phases=1 Bus1=node_534778992.1 Bus2=node_534778993.1 Switch=Y r1=1e-4 x1=1e-4 r0=1e-4 x0=1e-4 normamps=9999
New Line.341340784 Phases=3 Bus1=node_534889642.1.2.3 Bus2=node_534889643.1.2.3 Switch=Y r1=1e-4 x1=1e-4 r0=1e-4 x0=1e-4 normamps=9999
New Line.367099518 Phases=1 Bus1=node_564904868.2 Bus2=node_564904869.2 Switch=Y r1=1e-4 x1=1e-4 r0=1e-4 x0=1e-4 normamps=9999
New Line.1681710890 Phases=1 Bus1=node_2223098355.1 Bus2=node_2223098356.1 Switch=Y r1=1e-4 x1=1e-4 r0=1e-4 x0=1e-4 normamps=9999
New Line.1828823320 Phases=1 Bus1=node_2151341339.2 Bus2=node_2741482988.2 Switch=Y r1=1e-4 x1=1e-4 r0=1e-4 x0=1e-4 normamps=9999
New Line.1818934192 Phases=1 Bus1=node_2142220945.1 Bus2=node_2142221116.1 Switch=Y r1=1e-4 x1=1e-4 r0=1e-4 x0=1e-4 normamps=9999
New Line.341339059 Phases=1 Bus1=node_534778305.2 Bus2=node_534778306.2 Switch=Y r1=1e-4 x1=1e-4 r0=1e-4 x0=1e-4 normamps=9999
New Line.367451180 Phases=3 Bus1=node_565303240.1.2.3 Bus2=node_565303241.1.2.3 Switch=Y r1=1e-4 x1=1e-4 r0=1e-4 x0=1e-4 normamps=9999
New Line.340748162 Phases=1 Bus1=node_534487818.1 Bus2=node_534487819.1 Switch=Y r1=1e-4 x1=1e-4 r0=1e-4 x0=1e-4 normamps=9999
New Line.367100213 Phases=3 Bus1=node_564979455.1.2.3 Bus2=node_564979456.1.2.3 Switch=Y r1=1e-4 x1=1e-4 r0=1e-4 x0=1e-4 normamps=9999
New Line.342066082 Phases=1 Bus1=node_535704046.1 Bus2=node_535704047.1 Switch=Y r1=1e-4 x1=1e-4 r0=1e-4 x0=1e-4 normamps=9999
New Line.366825316 Phases=3 Bus1=node_564160645.1.2.3 Bus2=node_564160646.1.2.3 Switch=Y r1=1e-4 x1=1e-4 r0=1e-4 x0=1e-4 normamps=9999
New Line.342067419 Phases=3 Bus1=node_535844740.1.2.3 Bus2=node_535844739.1.2.3 Switch=Y r1=1e-4 x1=1e-4 r0=1e-4 x0=1e-4 normamps=9999
New Line.367100187 Phases=3 Bus1=node_564979401.1.2.3 Bus2=node_564979402.1.2.3 Switch=Y r1=1e-4 x1=1e-4 r0=1e-4 x0=1e-4 normamps=9999
New Line.341339078 Phases=1 Bus1=node_534778362.2 Bus2=node_534778363.2 Switch=Y r1=1e-4 x1=1e-4 r0=1e-4 x0=1e-4 normamps=9999
New Line.341338901 Phases=1 Bus1=node_534777913.1 Bus2=node_534777914.1 Switch=Y r1=1e-4 x1=1e-4 r0=1e-4 x0=1e-4 normamps=9999
New Line.340748355 Phases=3 Bus1=node_534488355.1.2.3 Bus2=node_534488356.1.2.3 Switch=Y r1=1e-4 x1=1e-4 r0=1e-4 x0=1e-4 normamps=9999
New Line.342067409 Phases=3 Bus1=node_535844721.1.2.3 Bus2=node_535844722.1.2.3 Switch=Y r1=1e-4 x1=1e-4 r0=1e-4 x0=1e-4 normamps=9999
New Line.340360434 Phases=3 Bus1=node_534217747.1.2.3 Bus2=node_534217748.1.2.3 Switch=Y r1=1e-4 x1=1e-4 r0=1e-4 x0=1e-4 normamps=9999
New Line.366921047 Phases=3 Bus1=node_564566774.1.2.3 Bus2=node_564566775.1.2.3 Switch=Y r1=1e-4 x1=1e-4 r0=1e-4 x0=1e-4 normamps=9999
New Line.343037494 Phases=3 Bus1=node_537004620.1.2.3 Bus2=node_537004619.1.2.3 Switch=Y r1=1e-4 x1=1e-4 r0=1e-4 x0=1e-4 normamps=9999
New Line.342067437 Phases=3 Bus1=node_535844763.1.2.3 Bus2=node_535844764.1.2.3 Switch=Y r1=1e-4 x1=1e-4 r0=1e-4 x0=1e-4 normamps=9999
New Line.340748142 Phases=3 Bus1=node_534487782.1.2.3 Bus2=node_534487783.1.2.3 Switch=Y r1=1e-4 x1=1e-4 r0=1e-4 x0=1e-4 normamps=9999
New Line.367285411 Phases=3 Bus1=node_565127916.1.2.3 Bus2=node_565127917.1.2.3 Switch=Y r1=1e-4 x1=1e-4 r0=1e-4 x0=1e-4 normamps=9999
New Line.367452934 Phases=3 Bus1=node_565312054.1.2.3 Bus2=node_565312055.1.2.3 Switch=Y r1=1e-4 x1=1e-4 r0=1e-4 x0=1e-4 normamps=9999
New Line.367287211 Phases=3 Bus1=node_565205590.1.2.3 Bus2=node_565205589.1.2.3 Switch=Y r1=1e-4 x1=1e-4 r0=1e-4 x0=1e-4 normamps=9999
New Line.366827064 Phases=3 Bus1=node_564165116.1.2.3 Bus2=node_564165117.1.2.3 Switch=Y r1=1e-4 x1=1e-4 r0=1e-4 x0=1e-4 normamps=9999
New Line.366807172 Phases=3 Bus1=node_564122865.1.2.3 Bus2=node_564122866.1.2.3 Switch=Y r1=1e-4 x1=1e-4 r0=1e-4 x0=1e-4 normamps=9999
New Line.367285569 Phases=1 Bus1=node_565128330.2 Bus2=node_565128331.2 Switch=Y r1=1e-4 x1=1e-4 r0=1e-4 x0=1e-4 normamps=9999
New Line.341340255 Phases=3 Bus1=node_534888665.1.2.3 Bus2=node_3064030983.1.2.3 Switch=Y r1=1e-4 x1=1e-4 r0=1e-4 x0=1e-4 normamps=9999
New Line.342067257 Phases=3 Bus1=node_535844434.1.2.3 Bus2=node_535844433.1.2.3 Switch=Y r1=1e-4 x1=1e-4 r0=1e-4 x0=1e-4 normamps=9999
New Line.342635282 Phases=3 Bus1=node_536636745.1.2.3 Bus2=node_536636744.1.2.3 Switch=Y r1=1e-4 x1=1e-4 r0=1e-4 x0=1e-4 normamps=9999
New Line.340749515 Phases=3 Bus1=node_534491151.1.2.3 Bus2=node_534491150.1.2.3 Switch=Y r1=1e-4 x1=1e-4 r0=1e-4 x0=1e-4 normamps=9999
New Line.340360547 Phases=3 Bus1=node_534217966.1.2.3 Bus2=node_534217967.1.2.3 Switch=Y r1=1e-4 x1=1e-4 r0=1e-4 x0=1e-4 normamps=9999
New Line.366854242 Phases=3 Bus1=node_564220284.1.2.3 Bus2=node_564220285.1.2.3 Switch=Y r1=1e-4 x1=1e-4 r0=1e-4 x0=1e-4 normamps=9999
New Line.366807093 Phases=3 Bus1=node_564122716.1.2.3 Bus2=node_564122717.1.2.3 Switch=Y r1=1e-4 x1=1e-4 r0=1e-4 x0=1e-4 normamps=9999
New Line.341340173 Phases=3 Bus1=node_534888489.1.2.3 Bus2=node_534888490.1.2.3 Switch=Y r1=1e-4 x1=1e-4 r0=1e-4 x0=1e-4 normamps=9999
New Line.366827180 Phases=3 Bus1=node_564165346.1.2.3 Bus2=node_564165347.1.2.3 Switch=Y r1=1e-4 x1=1e-4 r0=1e-4 x0=1e-4 normamps=9999
New Line.343037464 Phases=3 Bus1=node_537004560.1.2.3 Bus2=node_537004559.1.2.3 Switch=Y r1=1e-4 x1=1e-4 r0=1e-4 x0=1e-4 normamps=9999
New Line.342635232 Phases=3 Bus1=node_536636655.1.2.3 Bus2=node_536636654.1.2.3 Switch=Y r1=1e-4 x1=1e-4 r0=1e-4 x0=1e-4 normamps=9999
New Line.342383542 Phases=3 Bus1=node_536217007.1.2.3 Bus2=node_536217008.1.2.3 Switch=Y r1=1e-4 x1=1e-4 r0=1e-4 x0=1e-4 normamps=9999
New Line.342383508 Phases=3 Bus1=node_536216948.1.2.3 Bus2=node_536216947.1.2.3 Switch=Y r1=1e-4 x1=1e-4 r0=1e-4 x0=1e-4 normamps=9999
New Line.342635271 Phases=3 Bus1=node_536636729.1.2.3 Bus2=node_536636730.1.2.3 Switch=Y r1=1e-4 x1=1e-4 r0=1e-4 x0=1e-4 normamps=9999
New Line.367755608 Phases=1 Bus1=node_881360694.3 Bus2=node_881360695.3 Switch=Y r1=1e-4 x1=1e-4 r0=1e-4 x0=1e-4 normamps=9999
New Line.613325027 Phases=1 Bus1=node_2736552072.3 Bus2=node_2917392024.3 Switch=Y r1=1e-4 x1=1e-4 r0=1e-4 x0=1e-4 normamps=9999
New Line.624768421 Phases=1 Bus1=node_892847148.2 Bus2=node_892847149.2 Switch=Y r1=1e-4 x1=1e-4 r0=1e-4 x0=1e-4 normamps=9999
New Line.624768413 Phases=1 Bus1=node_892847128.2 Bus2=node_892847129.2 Switch=Y r1=1e-4 x1=1e-4 r0=1e-4 x0=1e-4 normamps=9999
New Line.507177274 Phases=1 Bus1=node_777334391.2 Bus2=node_777334390.2 Switch=Y r1=1e-4 x1=1e-4 r0=1e-4 x0=1e-4 normamps=9999
New Line.621320603 Phases=1 Bus1=node_889361098.3 Bus2=node_889361099.3 Switch=Y r1=1e-4 x1=1e-4 r0=1e-4 x0=1e-4 normamps=9999
New Line.583382883 Phases=1 Bus1=node_851895398.3 Bus2=node_851895399.3 Switch=Y r1=1e-4 x1=1e-4 r0=1e-4 x0=1e-4 normamps=9999
New Line.699703060 Phases=1 Bus1=node_971766713.3 Bus2=node_971766714.3 Switch=Y r1=1e-4 x1=1e-4 r0=1e-4 x0=1e-4 normamps=9999
New Line.666184088 Phases=1 Bus1=node_938015766.3 Bus2=node_938015831.3 Switch=Y r1=1e-4 x1=1e-4 r0=1e-4 x0=1e-4 normamps=9999
New Line.675386223 Phases=1 Bus1=node_947660410.3 Bus2=node_947660411.3 Switch=Y r1=1e-4 x1=1e-4 r0=1e-4 x0=1e-4 normamps=9999
New Line.342238936 Phases=3 Bus1=node_536115373.1.2.3 Bus2=node_536115374.1.2.3 Switch=Y r1=1e-4 x1=1e-4 r0=1e-4 x0=1e-4 normamps=9999
New Line.2528358825 Phases=1 Bus1=node_2681422846.1 Bus2=node_2681422847.1 Switch=Y r1=1e-4 x1=1e-4 r0=1e-4 x0=1e-4 normamps=9999
New Line.2528359040 Phases=1 Bus1=node_2681423273.1 Bus2=node_2681423394.1 Switch=Y r1=1e-4 x1=1e-4 r0=1e-4 x0=1e-4 normamps=9999
New Line.2528359077 Phases=1 Bus1=node_2681423469.1 Bus2=node_2681423470.1 Switch=Y r1=1e-4 x1=1e-4 r0=1e-4 x0=1e-4 normamps=9999
New Line.1307385657 Phases=3 Bus1=100_1307385663.1.2.3 Bus2=100_1307385662.1.2.3 Switch=Y r1=1e-4 x1=1e-4 r0=1e-4 x0=1e-4 normamps=9999
New Line.2712472589 Phases=1 Bus1=node_1946393144.1 Bus2=node_2898583766.1 Switch=Y r1=1e-4 x1=1e-4 r0=1e-4 x0=1e-4 normamps=9999
New Line.2414752400 Phases=1 Bus1=node_2570049857.2 Bus2=node_2570049858.2 Switch=Y r1=1e-4 x1=1e-4 r0=1e-4 x0=1e-4 normamps=9999
New Line.2604067012 Phases=1 Bus1=node_2757252216.1 Bus2=node_2757252217.1 Switch=Y r1=1e-4 x1=1e-4 r0=1e-4 x0=1e-4 normamps=9999
New Line.2588513444 Phases=1 Bus1=node_2741508782.2 Bus2=node_2741508781.2 Switch=Y r1=1e-4 x1=1e-4 r0=1e-4 x0=1e-4 normamps=9999
New Line.2530020605 Phases=1 Bus1=node_2682706847.3 Bus2=node_2682706846.3 Switch=Y r1=1e-4 x1=1e-4 r0=1e-4 x0=1e-4 normamps=9999
New Line.2560881710 Phases=1 Bus1=node_2698173864.3 Bus2=node_2698174861.3 Switch=Y r1=1e-4 x1=1e-4 r0=1e-4 x0=1e-4 normamps=9999
New Line.2556643350 Phases=1 Bus1=node_2695223690.3 Bus2=node_2695223691.3 Switch=Y r1=1e-4 x1=1e-4 r0=1e-4 x0=1e-4 normamps=9999
New Line.342635254 Phases=3 Bus1=node_536636690.1.2.3 Bus2=node_536636691.1.2.3 Switch=Y r1=1e-4 x1=1e-4 r0=1e-4 x0=1e-4 normamps=9999
New Line.340360051 Phases=3 Bus1=node_534216793.1.2.3 Bus2=node_534216792.1.2.3 Switch=Y r1=1e-4 x1=1e-4 r0=1e-4 x0=1e-4 normamps=9999
New Line.341102706 Phases=3 Bus1=node_534570389.1.2.3 Bus2=node_534570390.1.2.3 Switch=Y r1=1e-4 x1=1e-4 r0=1e-4 x0=1e-4 normamps=9999
New Line.342068312 Phases=3 Bus1=node_535846340.1.2.3 Bus2=node_535846341.1.2.3 Switch=Y r1=1e-4 x1=1e-4 r0=1e-4 x0=1e-4 normamps=9999
New Line.340749128 Phases=1 Bus1=node_534490265.2 Bus2=node_534490266.2 Switch=Y r1=1e-4 x1=1e-4 r0=1e-4 x0=1e-4 normamps=9999
New Line.340749057 Phases=1 Bus1=node_534490052.3 Bus2=node_534490053.3 Switch=Y r1=1e-4 x1=1e-4 r0=1e-4 x0=1e-4 normamps=9999
New Line.341919002 Phases=3 Bus1=node_535313844.1.2.3 Bus2=node_535313843.1.2.3 Switch=Y r1=1e-4 x1=1e-4 r0=1e-4 x0=1e-4 normamps=9999
New Line.340360946 Phases=3 Bus1=node_534218701.1.2.3 Bus2=node_534218700.1.2.3 Switch=Y r1=1e-4 x1=1e-4 r0=1e-4 x0=1e-4 normamps=9999
New Line.342634779 Phases=3 Bus1=node_536635565.1.2.3 Bus2=node_536635566.1.2.3 Switch=Y r1=1e-4 x1=1e-4 r0=1e-4 x0=1e-4 normamps=9999
New Line.342066803 Phases=3 Bus1=node_535705943.1.2.3 Bus2=node_535705944.1.2.3 Switch=Y r1=1e-4 x1=1e-4 r0=1e-4 x0=1e-4 normamps=9999
New Line.341102945 Phases=3 Bus1=node_2767080250.1.2.3 Bus2=node_2767080251.1.2.3 Switch=Y r1=1e-4 x1=1e-4 r0=1e-4 x0=1e-4 normamps=9999
New Line.366855300 Phases=3 Bus1=node_1337237559.1.2.3 Bus2=node_1337237560.1.2.3 Switch=Y r1=1e-4 x1=1e-4 r0=1e-4 x0=1e-4 normamps=9999
New Line.1430043823 Phases=1 Bus1=100_1430043854.1 Bus2=100_1430043853.1 Switch=Y r1=1e-4 x1=1e-4 r0=1e-4 x0=1e-4 normamps=9999
New Line.347294052 Phases=3 Bus1=100_347294042.1.2.3 Bus2=100_347294021.1.2.3 Switch=Y r1=1e-4 x1=1e-4 r0=1e-4 x0=1e-4 normamps=9999
New Line.347294184 Phases=3 Bus1=100_347294174.1.2.3 Bus2=100_347294153.1.2.3 Switch=Y r1=1e-4 x1=1e-4 r0=1e-4 x0=1e-4 normamps=9999
New Line.347294360 Phases=3 Bus1=100_347294350.1.2.3 Bus2=100_347294329.1.2.3 Switch=Y r1=1e-4 x1=1e-4 r0=1e-4 x0=1e-4 normamps=9999
New Line.347324492 Phases=3 Bus1=100_347294424.1.2.3 Bus2=100_347294403.1.2.3 Switch=Y r1=1e-4 x1=1e-4 r0=1e-4 x0=1e-4 normamps=9999
New Line.347294316 Phases=3 Bus1=100_347294285.1.2.3 Bus2=100_347294306.1.2.3 Switch=Y r1=1e-4 x1=1e-4 r0=1e-4 x0=1e-4 normamps=9999
New Line.342066456 Phases=1 Bus1=node_535705048.1 Bus2=node_535705049.1 Switch=Y r1=1e-4 x1=1e-4 r0=1e-4 x0=1e-4 normamps=9999
New Line.368021692 Phases=3 Bus1=100_368021682.1.2.3 Bus2=100_368021661.1.2.3 Switch=Y r1=1e-4 x1=1e-4 r0=1e-4 x0=1e-4 normamps=9999
New Line.347294140 Phases=3 Bus1=100_347294130.1.2.3 Bus2=100_347294109.1.2.3 Switch=Y r1=1e-4 x1=1e-4 r0=1e-4 x0=1e-4 normamps=9999
New Line.368020864 Phases=3 Bus1=100_368020854.1.2.3 Bus2=100_368020833.1.2.3 Switch=Y r1=1e-4 x1=1e-4 r0=1e-4 x0=1e-4 normamps=9999
New Line.368021174 Phases=3 Bus1=100_368021164.1.2.3 Bus2=100_368021143.1.2.3 Switch=Y r1=1e-4 x1=1e-4 r0=1e-4 x0=1e-4 normamps=9999
New Line.347294008 Phases=3 Bus1=100_347293977.1.2.3 Bus2=100_347293998.1.2.3 Switch=Y r1=1e-4 x1=1e-4 r0=1e-4 x0=1e-4 normamps=9999
New Line.368021086 Phases=3 Bus1=100_368021055.1.2.3 Bus2=100_368021076.1.2.3 Switch=Y r1=1e-4 x1=1e-4 r0=1e-4 x0=1e-4 normamps=9999
New Line.347293668 Phases=3 Bus1=100_347293637.1.2.3 Bus2=100_347293658.1.2.3 Switch=Y r1=1e-4 x1=1e-4 r0=1e-4 x0=1e-4 normamps=9999
New Line.347293712 Phases=3 Bus1=100_347293702.1.2.3 Bus2=100_347293681.1.2.3 Switch=Y r1=1e-4 x1=1e-4 r0=1e-4 x0=1e-4 normamps=9999
New Line.347293830 Phases=3 Bus1=100_347293820.1.2.3 Bus2=100_347293799.1.2.3 Switch=Y r1=1e-4 x1=1e-4 r0=1e-4 x0=1e-4 normamps=9999
New Line.347293786 Phases=3 Bus1=100_347293776.1.2.3 Bus2=100_347293755.1.2.3 Switch=Y r1=1e-4 x1=1e-4 r0=1e-4 x0=1e-4 normamps=9999
New Line.347324536 Phases=3 Bus1=100_347324526.1.2.3 Bus2=100_347324505.1.2.3 Switch=Y r1=1e-4 x1=1e-4 r0=1e-4 x0=1e-4 normamps=9999
New Line.367356656 Phases=3 Bus1=node_565267101.1.2.3 Bus2=node_565267102.1.2.3 Switch=Y r1=1e-4 x1=1e-4 r0=1e-4 x0=1e-4 normamps=9999
New Line.367453898 Phases=3 Bus1=node_565322411.1.2.3 Bus2=node_565322412.1.2.3 Switch=Y r1=1e-4 x1=1e-4 r0=1e-4 x0=1e-4 normamps=9999
New Line.366920726 Phases=3 Bus1=node_564467392.1.2.3 Bus2=node_564467391.1.2.3 Switch=Y r1=1e-4 x1=1e-4 r0=1e-4 x0=1e-4 normamps=9999
New Line.341919728 Phases=3 Bus1=node_535315159.1.2.3 Bus2=node_535315160.1.2.3 Switch=Y r1=1e-4 x1=1e-4 r0=1e-4 x0=1e-4 normamps=9999
New Line.341919293 Phases=3 Bus1=node_535314368.1.2.3 Bus2=node_535314369.1.2.3 Switch=Y r1=1e-4 x1=1e-4 r0=1e-4 x0=1e-4 normamps=9999
New Line.367100929 Phases=3 Bus1=node_564980828.1.2.3 Bus2=node_564980829.1.2.3 Switch=Y r1=1e-4 x1=1e-4 r0=1e-4 x0=1e-4 normamps=9999
New Line.341919321 Phases=1 Bus1=node_535314428.1 Bus2=node_535314429.1 Switch=Y r1=1e-4 x1=1e-4 r0=1e-4 x0=1e-4 normamps=9999
New Line.342068077 Phases=3 Bus1=node_535845909.1.2.3 Bus2=node_535845910.1.2.3 Switch=Y r1=1e-4 x1=1e-4 r0=1e-4 x0=1e-4 normamps=9999
New Line.340363714 Phases=1 Bus1=node_534332091.3 Bus2=node_534332090.3 Switch=Y r1=1e-4 x1=1e-4 r0=1e-4 x0=1e-4 normamps=9999
New Line.367358909 Phases=1 Bus1=node_565293730.3 Bus2=node_565293731.3 Switch=Y r1=1e-4 x1=1e-4 r0=1e-4 x0=1e-4 normamps=9999
New Line.341919315 Phases=1 Bus1=node_535314410.1 Bus2=node_535314411.1 Switch=Y r1=1e-4 x1=1e-4 r0=1e-4 x0=1e-4 normamps=9999
New Line.342847403 Phases=3 Bus1=node_536734291.1.2.3 Bus2=node_536734292.1.2.3 Switch=Y r1=1e-4 x1=1e-4 r0=1e-4 x0=1e-4 normamps=9999
New Line.341919484 Phases=3 Bus1=node_535314727.1.2.3 Bus2=node_535314728.1.2.3 Switch=Y r1=1e-4 x1=1e-4 r0=1e-4 x0=1e-4 normamps=9999
New Line.343038764 Phases=3 Bus1=node_537006890.1.2.3 Bus2=node_537006891.1.2.3 Switch=Y r1=1e-4 x1=1e-4 r0=1e-4 x0=1e-4 normamps=9999
New Line.340361593 Phases=3 Bus1=node_534219852.1.2.3 Bus2=node_534219851.1.2.3 Switch=Y r1=1e-4 x1=1e-4 r0=1e-4 x0=1e-4 normamps=9999
New Line.342631260 Phases=1 Bus1=node_536437953.1 Bus2=node_536437954.1 Switch=Y r1=1e-4 x1=1e-4 r0=1e-4 x0=1e-4 normamps=9999
New Line.340360988 Phases=1 Bus1=node_534218772.3 Bus2=node_534218773.3 Switch=Y r1=1e-4 x1=1e-4 r0=1e-4 x0=1e-4 normamps=9999
New Line.340359804 Phases=1 Bus1=node_532953727.3 Bus2=node_532953728.3 Switch=Y r1=1e-4 x1=1e-4 r0=1e-4 x0=1e-4 normamps=9999
New Line.343038118 Phases=3 Bus1=node_537005724.1.2.3 Bus2=node_537005725.1.2.3 Switch=Y r1=1e-4 x1=1e-4 r0=1e-4 x0=1e-4 normamps=9999
New Line.341919232 Phases=3 Bus1=node_535314257.1.2.3 Bus2=node_535314258.1.2.3 Switch=Y r1=1e-4 x1=1e-4 r0=1e-4 x0=1e-4 normamps=9999
New Line.340750035 Phases=3 Bus1=node_534569382.1.2.3 Bus2=node_534569383.1.2.3 Switch=Y r1=1e-4 x1=1e-4 r0=1e-4 x0=1e-4 normamps=9999
New Line.341339451 Phases=1 Bus1=node_534886705.3 Bus2=node_534886706.3 Switch=Y r1=1e-4 x1=1e-4 r0=1e-4 x0=1e-4 normamps=9999
New Line.367356286 Phases=1 Bus1=node_565206308.2 Bus2=node_565206309.2 Switch=Y r1=1e-4 x1=1e-4 r0=1e-4 x0=1e-4 normamps=9999
New Line.340360661 Phases=3 Bus1=node_534218193.1.2.3 Bus2=node_534218194.1.2.3 Switch=Y r1=1e-4 x1=1e-4 r0=1e-4 x0=1e-4 normamps=9999
...
